<?xml version="1.0" encoding="UTF-8"?>

<!-- generated on 2024-05-23 15:01:45 by Eclipse SUMO duarouter Version 1.20.0 -->

<configuration xmlns:xsi="http://www.w3.org/2001/XMLSchema-instance" xsi:noNamespaceSchemaLocation="http://sumo.dlr.de/xsd/sumoConfiguration.xsd">

    <input>
        <net-file value="oldu.net.xml"/>
        <route-files value="oldu.rou.xml"/>
    </input>

    <time>
        <begin value="0"/>
        <end value="86400"/>
    </time>

</configuration>
